data_image0
_cell_length_a       35.3377
_cell_length_b       35.3377
_cell_length_c       10
_cell_angle_alpha    90
_cell_angle_beta     90
_cell_angle_gamma    36

_symmetry_space_group_name_H-M    "P 1"
_symmetry_int_tables_number       1

loop_
  _symmetry_equiv_pos_as_xyz
  'x, y, z'

loop_
  _atom_site_label
  _atom_site_occupancy
  _atom_site_fract_x
  _atom_site_fract_y
  _atom_site_fract_z
  _atom_site_thermal_displace_type
  _atom_site_B_iso_or_equiv
  _atom_site_type_symbol
  B1       1.0000 0.45432  0.45428  0.50000  Biso   1.000  B 
  B2       1.0000 0.61720  0.35475  0.50000  Biso   1.000  B 
  B3       1.0000 0.35466  0.61714  0.50000  Biso   1.000  B 
  B4       1.0000 0.61875  0.45577  0.50000  Biso   1.000  B 
  B5       1.0000 0.45574  0.61872  0.50000  Biso   1.000  B 
  C1       1.0000 0.20801  0.65200  0.50000  Biso   1.000  C 
  C2       1.0000 0.24962  0.68146  0.50000  Biso   1.000  C 
  C3       1.0000 0.19686  0.69985  0.50000  Biso   1.000  C 
  C4       1.0000 0.31645  0.68123  0.50000  Biso   1.000  C 
  C5       1.0000 0.71073  0.32990  0.50000  Biso   1.000  C 
  C6       1.0000 0.54623  0.65316  0.50000  Biso   1.000  C 
  C7       1.0000 0.47949  0.70144  0.50000  Biso   1.000  C 
  C8       1.0000 0.45566  0.68389  0.50000  Biso   1.000  C 
  C9       1.0000 0.38983  0.68298  0.50000  Biso   1.000  C 
  C10      1.0000 0.65215  0.20798  0.50000  Biso   1.000  C 
  C11      1.0000 0.58656  0.27288  0.50000  Biso   1.000  C 
  C12      1.0000 0.54604  0.27306  0.50000  Biso   1.000  C 
  C13      1.0000 0.56490  0.32867  0.50000  Biso   1.000  C 
  C14      1.0000 0.49591  0.38879  0.50000  Biso   1.000  C 
  C15      1.0000 0.45530  0.38842  0.50000  Biso   1.000  C 
  C16      1.0000 0.47933  0.33227  0.50000  Biso   1.000  C 
  C17      1.0000 0.38884  0.49583  0.50000  Biso   1.000  C 
  C18      1.0000 0.38850  0.45520  0.50000  Biso   1.000  C 
  C19      1.0000 0.32868  0.56480  0.50000  Biso   1.000  C 
  C20      1.0000 0.27291  0.58642  0.50000  Biso   1.000  C 
  C21      1.0000 0.27312  0.54588  0.50000  Biso   1.000  C 
  C22      1.0000 0.33237  0.47920  0.50000  Biso   1.000  C 
  C23      1.0000 0.68129  0.31649  0.50000  Biso   1.000  C 
  C24      1.0000 0.61555  0.31561  0.50000  Biso   1.000  C 
  C25      1.0000 0.68148  0.24971  0.50000  Biso   1.000  C 
  C26      1.0000 0.69994  0.19691  0.50000  Biso   1.000  C 
  C27      1.0000 0.31553  0.61550  0.50000  Biso   1.000  C 
  C28      1.0000 0.68304  0.38986  0.50000  Biso   1.000  C 
  C29      1.0000 0.68385  0.45578  0.50000  Biso   1.000  C 
  C30      1.0000 0.61737  0.49705  0.50000  Biso   1.000  C 
  C31      1.0000 0.70128  0.47973  0.50000  Biso   1.000  C 
  C32      1.0000 0.65293  0.54650  0.50000  Biso   1.000  C 
  C33      1.0000 0.58732  0.58751  0.50000  Biso   1.000  C 
  C34      1.0000 0.56613  0.56624  0.50000  Biso   1.000  C 
  C35      1.0000 0.49696  0.61741  0.50000  Biso   1.000  C 
  C36      1.0000 0.81987  0.27343  0.50000  Biso   1.000  C 
  C37      1.0000 0.77932  0.27386  0.50000  Biso   1.000  C 
  C38      1.0000 0.81860  0.20875  0.50000  Biso   1.000  C 
  C39      1.0000 0.72232  0.24994  0.50000  Biso   1.000  C 
  C40      1.0000 0.78874  0.19752  0.50000  Biso   1.000  C 
  C41      1.0000 0.79158  0.33224  0.50000  Biso   1.000  C 
  C42      1.0000 0.72472  0.38903  0.50000  Biso   1.000  C 
  C43      1.0000 0.24988  0.72228  0.50000  Biso   1.000  C 
  C44      1.0000 0.32988  0.71066  0.50000  Biso   1.000  C 
  C45      1.0000 0.27383  0.77926  0.50000  Biso   1.000  C 
  C46      1.0000 0.20870  0.81856  0.50000  Biso   1.000  C 
  C47      1.0000 0.19746  0.78870  0.50000  Biso   1.000  C 
  C48      1.0000 0.27338  0.81984  0.50000  Biso   1.000  C 
  C49      1.0000 0.38896  0.72470  0.50000  Biso   1.000  C 
  C50      1.0000 0.33220  0.79154  0.50000  Biso   1.000  C 
  H1       1.0000 0.16858  0.66510  0.50009  Biso   1.000  H 
  H2       1.0000 0.57633  0.65370  0.50014  Biso   1.000  H 
  H3       1.0000 0.65875  0.17273  0.50000  Biso   1.000  H 
  H4       1.0000 0.56114  0.23146  0.50000  Biso   1.000  H 
  H5       1.0000 0.22958  0.56542  0.50000  Biso   1.000  H 
  H6       1.0000 0.66515  0.56566  0.50009  Biso   1.000  H 
  H7       1.0000 0.44663  0.33474  0.50000  Biso   1.000  H 
  H8       1.0000 0.33489  0.44646  0.50000  Biso   1.000  H 
  H9       1.0000 0.40674  0.57479  0.50000  Biso   1.000  H 
  H10      1.0000 0.47041  0.47037  0.50000  Biso   1.000  H 
  H11      1.0000 0.57494  0.40682  0.50000  Biso   1.000  H 
  H12      1.0000 0.57652  0.47202  0.50000  Biso   1.000  H 
  H13      1.0000 0.47204  0.57646  0.50000  Biso   1.000  H 
  H14      1.0000 0.87049  0.22494  0.50009  Biso   1.000  H 
  H15      1.0000 0.86906  0.17420  0.50023  Biso   1.000  H 
  H16      1.0000 0.75062  0.14838  0.50000  Biso   1.000  H 
  H17      1.0000 0.81680  0.14889  0.50000  Biso   1.000  H 
  H18      1.0000 0.75181  0.44679  0.50000  Biso   1.000  H 
  H19      1.0000 0.82094  0.33393  0.50000  Biso   1.000  H 
  H20      1.0000 0.22952  0.87025  0.50000  Biso   1.000  H 
  H21      1.0000 0.16879  0.87041  0.50009  Biso   1.000  H 
  H22      1.0000 0.14882  0.81679  0.50000  Biso   1.000  H 
  H23      1.0000 0.14827  0.75051  0.50000  Biso   1.000  H 
  H24      1.0000 0.44645  0.75201  0.50000  Biso   1.000  H 
  H25      1.0000 0.33388  0.82090  0.50000  Biso   1.000  H 
