data_image0
_cell_length_a       35.3377
_cell_length_b       35.3377
_cell_length_c       10
_cell_angle_alpha    90
_cell_angle_beta     90
_cell_angle_gamma    36

_symmetry_space_group_name_H-M    "P 1"
_symmetry_int_tables_number       1

loop_
  _symmetry_equiv_pos_as_xyz
  'x, y, z'

loop_
  _atom_site_label
  _atom_site_occupancy
  _atom_site_fract_x
  _atom_site_fract_y
  _atom_site_fract_z
  _atom_site_thermal_displace_type
  _atom_site_B_iso_or_equiv
  _atom_site_type_symbol
  B1       1.0000 0.35536  0.98826  0.50000  Biso   1.000  B 
  B2       1.0000 0.97457  0.36911  0.50000  Biso   1.000  B 
  C1       1.0000 0.28875  0.98904  0.50000  Biso   1.000  C 
  C2       1.0000 0.28858  0.02955  0.50000  Biso   1.000  C 
  C3       1.0000 0.22935  0.09624  0.50000  Biso   1.000  C 
  C4       1.0000 0.17321  0.12025  0.50000  Biso   1.000  C 
  C5       1.0000 0.17284  0.07965  0.50000  Biso   1.000  C 
  C6       1.0000 0.23296  0.01069  0.50000  Biso   1.000  C 
  C7       1.0000 0.10642  0.18704  0.50000  Biso   1.000  C 
  C8       1.0000 0.06579  0.18668  0.50000  Biso   1.000  C 
  C9       1.0000 0.10736  0.12120  0.50000  Biso   1.000  C 
  C10      1.0000 0.08245  0.24315  0.50000  Biso   1.000  C 
  C11      1.0000 0.01577  0.30238  0.50000  Biso   1.000  C 
  C12      1.0000 0.49243  0.95020  0.50000  Biso   1.000  C 
  C13      1.0000 0.45035  0.95117  0.50000  Biso   1.000  C 
  C14      1.0000 0.38331  0.00174  0.50000  Biso   1.000  C 
  C15      1.0000 0.53404  0.97966  0.50000  Biso   1.000  C 
  C16      1.0000 0.48128  0.99805  0.50000  Biso   1.000  C 
  C17      1.0000 0.60087  0.97943  0.50000  Biso   1.000  C 
  C18      1.0000 0.53430  0.02048  0.50000  Biso   1.000  C 
  C19      1.0000 0.61430  0.00886  0.50000  Biso   1.000  C 
  C20      1.0000 0.55825  0.07746  0.50000  Biso   1.000  C 
  C21      1.0000 0.49312  0.11676  0.50000  Biso   1.000  C 
  C22      1.0000 0.48188  0.08690  0.50000  Biso   1.000  C 
  C23      1.0000 0.55780  0.11804  0.50000  Biso   1.000  C 
  C24      1.0000 0.49034  0.18471  0.50000  Biso   1.000  C 
  C25      1.0000 0.45070  0.18316  0.50000  Biso   1.000  C 
  C26      1.0000 0.46094  0.24375  0.50000  Biso   1.000  C 
  C27      1.0000 0.39310  0.30102  0.50000  Biso   1.000  C 
  C28      1.0000 0.35322  0.29966  0.50000  Biso   1.000  C 
  C29      1.0000 0.38282  0.24053  0.50000  Biso   1.000  C 
  C30      1.0000 0.35227  0.36602  0.50000  Biso   1.000  C 
  C31      1.0000 0.28728  0.40689  0.50000  Biso   1.000  C 
  C32      1.0000 0.28587  0.36703  0.50000  Biso   1.000  C 
  C33      1.0000 0.23001  0.47475  0.50000  Biso   1.000  C 
  C34      1.0000 0.17098  0.50415  0.50000  Biso   1.000  C 
  C35      1.0000 0.16941  0.46453  0.50000  Biso   1.000  C 
  C36      1.0000 0.22674  0.39667  0.50000  Biso   1.000  C 
  C37      1.0000 0.10429  0.57163  0.50000  Biso   1.000  C 
  C38      1.0000 0.06374  0.57206  0.50000  Biso   1.000  C 
  C39      1.0000 0.10302  0.50695  0.50000  Biso   1.000  C 
  C40      1.0000 0.99515  0.62810  0.50000  Biso   1.000  C 
  C41      1.0000 0.00674  0.54814  0.50000  Biso   1.000  C 
  C42      1.0000 0.07316  0.49572  0.50000  Biso   1.000  C 
  C43      1.0000 0.87162  0.95190  0.50000  Biso   1.000  C 
  C44      1.0000 0.83065  0.95136  0.50000  Biso   1.000  C 
  C45      1.0000 0.76391  0.99964  0.50000  Biso   1.000  C 
  C46      1.0000 0.74008  0.98209  0.50000  Biso   1.000  C 
  C47      1.0000 0.67338  0.02290  0.50000  Biso   1.000  C 
  C48      1.0000 0.67425  0.98118  0.50000  Biso   1.000  C 
  C49      1.0000 0.61662  0.08974  0.50000  Biso   1.000  C 
  C50      1.0000 0.07600  0.63044  0.50000  Biso   1.000  C 
  C51      1.0000 0.00914  0.68723  0.50000  Biso   1.000  C 
  C52      1.0000 0.01496  0.92267  0.50000  Biso   1.000  C 
  C53      1.0000 0.08172  0.87436  0.50000  Biso   1.000  C 
  C54      1.0000 0.10561  0.89186  0.50000  Biso   1.000  C 
  C55      1.0000 0.06429  0.95834  0.50000  Biso   1.000  C 
  C56      1.0000 0.17231  0.85112  0.50000  Biso   1.000  C 
  C57      1.0000 0.17143  0.89284  0.50000  Biso   1.000  C 
  C58      1.0000 0.10547  0.95709  0.50000  Biso   1.000  C 
  C59      1.0000 0.22908  0.78426  0.50000  Biso   1.000  C 
  C60      1.0000 0.28790  0.75594  0.50000  Biso   1.000  C 
  C61      1.0000 0.28749  0.79650  0.50000  Biso   1.000  C 
  C62      1.0000 0.23144  0.86510  0.50000  Biso   1.000  C 
  C63      1.0000 0.35538  0.68925  0.50000  Biso   1.000  C 
  C64      1.0000 0.39503  0.69080  0.50000  Biso   1.000  C 
  C65      1.0000 0.35263  0.75717  0.50000  Biso   1.000  C 
  C66      1.0000 0.38483  0.63019  0.50000  Biso   1.000  C 
  C67      1.0000 0.45270  0.57292  0.50000  Biso   1.000  C 
  C68      1.0000 0.49256  0.57431  0.50000  Biso   1.000  C 
  C69      1.0000 0.46292  0.63345  0.50000  Biso   1.000  C 
  C70      1.0000 0.49360  0.50791  0.50000  Biso   1.000  C 
  C71      1.0000 0.55860  0.46705  0.50000  Biso   1.000  C 
  C72      1.0000 0.55995  0.50695  0.50000  Biso   1.000  C 
  C73      1.0000 0.61591  0.39920  0.50000  Biso   1.000  C 
  C74      1.0000 0.67493  0.36983  0.50000  Biso   1.000  C 
  C75      1.0000 0.67647  0.40948  0.50000  Biso   1.000  C 
  C76      1.0000 0.61906  0.47737  0.50000  Biso   1.000  C 
  C77      1.0000 0.74159  0.30237  0.50000  Biso   1.000  C 
  C78      1.0000 0.78216  0.30193  0.50000  Biso   1.000  C 
  C79      1.0000 0.74289  0.36704  0.50000  Biso   1.000  C 
  C80      1.0000 0.76986  0.24357  0.50000  Biso   1.000  C 
  C81      1.0000 0.83671  0.18675  0.50000  Biso   1.000  C 
  C82      1.0000 0.87845  0.18585  0.50000  Biso   1.000  C 
  C83      1.0000 0.85076  0.24585  0.50000  Biso   1.000  C 
  C84      1.0000 0.87747  0.12002  0.50000  Biso   1.000  C 
  C85      1.0000 0.94396  0.07869  0.50000  Biso   1.000  C 
  C86      1.0000 0.94271  0.11988  0.50000  Biso   1.000  C 
  C87      1.0000 0.85997  0.09614  0.50000  Biso   1.000  C 
  C88      1.0000 0.90824  0.02938  0.50000  Biso   1.000  C 
  C89      1.0000 0.99511  0.00952  0.50000  Biso   1.000  C 
  C90      1.0000 0.90779  0.98832  0.50000  Biso   1.000  C 
  C91      1.0000 0.85781  0.00198  0.50000  Biso   1.000  C 
  C92      1.0000 0.35364  0.92346  0.50000  Biso   1.000  C 
  C93      1.0000 0.39578  0.92243  0.50000  Biso   1.000  C 
  C94      1.0000 0.24597  0.96009  0.50000  Biso   1.000  C 
  C95      1.0000 0.31185  0.89416  0.50000  Biso   1.000  C 
  C96      1.0000 0.36468  0.87568  0.50000  Biso   1.000  C 
  C97      1.0000 0.20680  0.95848  0.50000  Biso   1.000  C 
  C98      1.0000 0.24498  0.89443  0.50000  Biso   1.000  C 
  C99      1.0000 0.31157  0.85335  0.50000  Biso   1.000  C 
  C100     1.0000 0.36394  0.78696  0.50000  Biso   1.000  C 
  C101     1.0000 0.88020  0.25927  0.50000  Biso   1.000  C 
  C102     1.0000 0.83923  0.32580  0.50000  Biso   1.000  C 
  C103     1.0000 0.77281  0.37822  0.50000  Biso   1.000  C 
  C104     1.0000 0.94432  0.22095  0.50000  Biso   1.000  C 
  C105     1.0000 0.94610  0.25998  0.50000  Biso   1.000  C 
  C106     1.0000 0.88017  0.32592  0.50000  Biso   1.000  C 
  C107     1.0000 0.99681  0.24684  0.50000  Biso   1.000  C 
  C108     1.0000 0.97522  0.30259  0.50000  Biso   1.000  C 
  C109     1.0000 0.90966  0.36751  0.50000  Biso   1.000  C 
  C110     1.0000 0.86180  0.37866  0.50000  Biso   1.000  C 
  C111     1.0000 0.90873  0.40957  0.50000  Biso   1.000  C 
  C112     1.0000 0.98810  0.39703  0.50000  Biso   1.000  C 
  C113     1.0000 0.93756  0.46407  0.50000  Biso   1.000  C 
  C114     1.0000 0.87173  0.50451  0.50000  Biso   1.000  C 
  C115     1.0000 0.85822  0.47658  0.50000  Biso   1.000  C 
  C116     1.0000 0.93657  0.50618  0.50000  Biso   1.000  C 
  C117     1.0000 0.87098  0.57108  0.50000  Biso   1.000  C 
  C118     1.0000 0.83046  0.57126  0.50000  Biso   1.000  C 
  C119     1.0000 0.84932  0.62687  0.50000  Biso   1.000  C 
  C120     1.0000 0.78033  0.68699  0.50000  Biso   1.000  C 
  C121     1.0000 0.73972  0.68662  0.50000  Biso   1.000  C 
  C122     1.0000 0.76375  0.63047  0.50000  Biso   1.000  C 
  C123     1.0000 0.73874  0.75248  0.50000  Biso   1.000  C 
  C124     1.0000 0.67326  0.79403  0.50000  Biso   1.000  C 
  C125     1.0000 0.67292  0.75340  0.50000  Biso   1.000  C 
  C126     1.0000 0.61310  0.86300  0.50000  Biso   1.000  C 
  C127     1.0000 0.55733  0.88462  0.50000  Biso   1.000  C 
  C128     1.0000 0.55754  0.84408  0.50000  Biso   1.000  C 
  C129     1.0000 0.61679  0.77740  0.50000  Biso   1.000  C 
  C130     1.0000 0.49079  0.88534  0.50000  Biso   1.000  C 
  C131     1.0000 0.46283  0.87187  0.50000  Biso   1.000  C 
  C132     1.0000 0.96571  0.61469  0.50000  Biso   1.000  C 
  C133     1.0000 0.90162  0.65295  0.50000  Biso   1.000  C 
  C134     1.0000 0.89997  0.61381  0.50000  Biso   1.000  C 
  C135     1.0000 0.96590  0.54791  0.50000  Biso   1.000  C 
  C136     1.0000 0.98436  0.49511  0.50000  Biso   1.000  C 
  C137     1.0000 0.59995  0.91370  0.50000  Biso   1.000  C 
  C138     1.0000 0.63908  0.91534  0.50000  Biso   1.000  C 
  C139     1.0000 0.96746  0.68806  0.50000  Biso   1.000  C 
  C140     1.0000 0.96827  0.75398  0.50000  Biso   1.000  C 
  C141     1.0000 0.90179  0.79525  0.50000  Biso   1.000  C 
  C142     1.0000 0.90317  0.75397  0.50000  Biso   1.000  C 
  C143     1.0000 0.98570  0.77793  0.50000  Biso   1.000  C 
  C144     1.0000 0.93735  0.84470  0.50000  Biso   1.000  C 
  C145     1.0000 0.87174  0.88571  0.50000  Biso   1.000  C 
  C146     1.0000 0.85055  0.86444  0.50000  Biso   1.000  C 
  C147     1.0000 0.93778  0.88577  0.50000  Biso   1.000  C 
  C148     1.0000 0.78138  0.91561  0.50000  Biso   1.000  C 
  C149     1.0000 0.74016  0.91692  0.50000  Biso   1.000  C 
  C150     1.0000 0.98776  0.87210  0.50000  Biso   1.000  C 
  C151     1.0000 0.97396  0.92218  0.50000  Biso   1.000  C 
  C152     1.0000 0.97388  0.98831  0.50000  Biso   1.000  C 
  H1       1.0000 0.15472  0.00075  0.50000  Biso   1.000  H 
  H2       1.0000 0.09130  0.10508  0.50000  Biso   1.000  H 
  H3       1.0000 0.98651  0.16887  0.50000  Biso   1.000  H 
  H4       1.0000 0.98505  0.10345  0.50000  Biso   1.000  H 
  H5       1.0000 0.08898  0.99947  0.50000  Biso   1.000  H 
  H6       1.0000 0.11522  0.24059  0.50000  Biso   1.000  H 
  H7       1.0000 0.03771  0.36666  0.50000  Biso   1.000  H 
  H8       1.0000 0.03504  0.44658  0.50000  Biso   1.000  H 
  H9       1.0000 0.10122  0.44709  0.50000  Biso   1.000  H 
  H10      1.0000 0.22402  0.36817  0.50000  Biso   1.000  H 
  H11      1.0000 0.35431  0.23784  0.50000  Biso   1.000  H 
  H12      1.0000 0.43324  0.11499  0.50000  Biso   1.000  H 
  H13      1.0000 0.43269  0.04871  0.50000  Biso   1.000  H 
  H14      1.0000 0.35299  0.05133  0.50000  Biso   1.000  H 
  H15      1.0000 0.22687  0.12896  0.50000  Biso   1.000  H 
  H16      1.0000 0.41260  0.75883  0.50000  Biso   1.000  H 
  H17      1.0000 0.41322  0.82498  0.50000  Biso   1.000  H 
  H18      1.0000 0.49141  0.63618  0.50000  Biso   1.000  H 
  H19      1.0000 0.62170  0.50594  0.50000  Biso   1.000  H 
  H20      1.0000 0.74476  0.42684  0.50000  Biso   1.000  H 
  H21      1.0000 0.81114  0.42725  0.50000  Biso   1.000  H 
  H22      1.0000 0.80864  0.50693  0.50000  Biso   1.000  H 
  H23      1.0000 0.73105  0.63294  0.50000  Biso   1.000  H 
  H24      1.0000 0.61931  0.74466  0.50000  Biso   1.000  H 
  H25      1.0000 0.49314  0.82229  0.50000  Biso   1.000  H 
  H26      1.0000 0.69116  0.87299  0.50000  Biso   1.000  H 
  H27      1.0000 0.75483  0.76857  0.50000  Biso   1.000  H 
  H28      1.0000 0.85936  0.70502  0.50000  Biso   1.000  H 
  H29      1.0000 0.86094  0.77022  0.50000  Biso   1.000  H 
  H30      1.0000 0.03623  0.74499  0.50000  Biso   1.000  H 
  H31      1.0000 0.03753  0.82236  0.50000  Biso   1.000  H 
  H32      1.0000 0.11467  0.82384  0.50000  Biso   1.000  H 
  H33      1.0000 0.22736  0.75493  0.50000  Biso   1.000  H 
  H34      1.0000 0.35644  0.62733  0.50000  Biso   1.000  H 
  H35      1.0000 0.47748  0.49177  0.50000  Biso   1.000  H 
  H36      1.0000 0.61311  0.37076  0.50000  Biso   1.000  H 
  H37      1.0000 0.74047  0.24191  0.50000  Biso   1.000  H 
  H38      1.0000 0.80942  0.12915  0.50000  Biso   1.000  H 
  H39      1.0000 0.80801  0.05171  0.50000  Biso   1.000  H 
  H40      1.0000 0.73087  0.05021  0.50000  Biso   1.000  H 
  H41      1.0000 0.61830  0.11910  0.50000  Biso   1.000  H 
  H42      1.0000 0.48936  0.24660  0.50000  Biso   1.000  H 
  H43      1.0000 0.36842  0.38212  0.50000  Biso   1.000  H 
  H44      1.0000 0.23287  0.50316  0.50000  Biso   1.000  H 
  H45      1.0000 0.10536  0.63213  0.50000  Biso   1.000  H 
  H46      1.0000 0.75646  0.87466  0.50000  Biso   1.000  H 
