80
Lattice="35.33770000 0.0 0.0  28.58879984 20.77097891 0.0 0.0 0.0 10.0" pbc="T T T" 
 C                 25.99033529   13.54264022    5.00000000
 C                 28.30296303   14.15455326    5.00000000
 C                 26.96429401   14.53653156    5.00000000
 C                 30.65800610   14.14977593    5.00000000
 C                 34.54685141    6.85230791    5.00000000
 C                 37.97541519   13.56673456    5.00000000
 C                 36.99724435   14.56955742    5.00000000
 C                 35.65341352   14.20502674    5.00000000
 C                 33.30111692   14.18612515    5.00000000
 C                 28.99122246    4.31991016    5.00000000
 C                 28.52883583    5.66794670    5.00000000
 C                 27.10209821    5.67168547    5.00000000
 C                 29.35839039    6.82675961    5.00000000
 C                 28.63920111    8.07551086    5.00000000
 C                 27.19355926    8.06782560    5.00000000
 C                 26.43746308    6.90153513    5.00000000
 C                 29.04178667    9.43580227    5.00000000
 C                 27.91573871   10.29883644    5.00000000
 C                 26.74216096    9.45491157    5.00000000
 C                 27.76159220   11.73141086    5.00000000
 C                 26.40889853   12.18047942    5.00000000
 C                 25.25732950   11.33842394    5.00000000
 C                 25.44478705    9.95341506    5.00000000
 C                 33.12313371    6.57376909    5.00000000
 C                 31.95214800    7.36846674    5.00000000
 C                 30.77487517    6.55549062    5.00000000
 C                 31.22068782    5.18668311    5.00000000
 C                 30.36353313    4.08997543    5.00000000
 C                 28.74635360   12.78449949    5.00000000
 C                 30.17600343   12.81856390    5.00000000
 C                 35.28253493    8.09773581    5.00000000
 C                 37.19573215    9.46695874    5.00000000
 C                 36.02634163   10.32417704    5.00000000
 C                 34.89496200    9.46675103    5.00000000
 C                 38.49637002    9.96442368    5.00000000
 C                 38.69666639   11.35130195    5.00000000
 C                 37.55058658   12.20311979    5.00000000
 C                 36.19369694   11.76132107    5.00000000
 C                 35.21227712   12.82417206    5.00000000
 C                 33.79310845   12.85138204    5.00000000
 C                 36.78919846    5.67937073    5.00000000
 C                 35.36854791    5.68830226    5.00000000
 C                 34.89519600    4.33590382    5.00000000
 C                 32.67045491    5.19146044    5.00000000
 C                 33.51896006    4.10264573    5.00000000
 C                 37.47080224    6.90091200    5.00000000
 C                 36.73168156    8.08049590    5.00000000
 C                 29.47914564   15.00242462    5.00000000
 C                 31.97395979   14.76106584    5.00000000
 C                 31.95447337   16.18595500    5.00000000
 C                 30.77646880   17.00225447    5.00000000
 C                 29.52561149   16.38203304    5.00000000
 C                 33.09870490   17.02884132    5.00000000
 C                 34.46309785   15.05269039    5.00000000
 C                 34.36820538   16.44102262    5.00000000
 H                 24.97165869   13.81477478    5.00093230
 H                 39.05477287   13.57795088    5.00139845
 H                 28.21676817    3.58769330    5.00000000
 H                 26.44636903    4.80761673    5.00000000
 H                 24.27729477   11.74426495    5.00000000
 H                 39.67626608   11.74926651    5.00093230
 H                 25.35253463    6.95283945    5.00000000
 H                 24.59784075    9.27337322    5.00000000
 H                 30.80565518   11.93891294    5.00000000
 H                 30.07036406    9.77000732    5.00000000
 H                 31.94739561    8.45001161    5.00000000
 H                 33.86721892    9.80427944    5.00000000
 H                 33.16095028   11.97360047    5.00000000
 H                 37.19165206    4.67218085    5.00093230
 H                 35.69084841    3.61836339    5.00233067
 H                 30.76703331    3.08195982    5.00000000
 H                 33.12026259    3.09255302    5.00000000
 H                 39.34026894    9.28022764    5.00000000
 H                 38.55663219    6.93601496    5.00000000
 H                 32.99022321   18.07594051    5.00000000
 H                 30.84860479   18.07935777    5.00093230
 H                 28.60984515   16.96548983    5.00000000
 H                 26.69554376   15.58878935    5.00000000
 H                 37.27542235   15.61994582    5.00000000
 H                 35.26693988   17.05085856    5.00000000
